Version 4.1
SHEET 1 880 680
WIRE 352 -176 64 -176
WIRE 192 -32 192 -64
WIRE 352 32 352 -176
WIRE 400 32 352 32
WIRE 144 48 128 48
WIRE 192 48 192 16
WIRE 64 64 64 -176
WIRE 64 64 16 64
WIRE 128 64 128 48
WIRE 128 64 64 64
WIRE 400 64 192 64
WIRE 592 64 496 64
WIRE 192 80 192 64
WIRE 128 160 128 64
WIRE 144 160 128 160
WIRE 192 160 192 128
FLAG 192 176 0
FLAG 192 -64 Vdd
IOPIN 192 -64 In
FLAG 16 64 Clk
IOPIN 16 64 In
FLAG 400 96 Vdd
IOPIN 400 96 In
FLAG -464 -208 0
FLAG -464 -288 Vdd
IOPIN -464 -288 In
FLAG -368 -208 0
FLAG -368 -288 Clk
IOPIN -368 -288 In
FLAG 592 64 Clk1
IOPIN 592 64 Out
SYMBOL nmos4 144 80 R0
SYMATTR InstName M1
SYMBOL pmos4 144 -32 R0
SYMATTR InstName M2
SYMBOL voltage -464 -304 R0
WINDOW 123 0 0 Left 0
WINDOW 39 0 0 Left 0
SYMATTR InstName V1
SYMATTR Value 5
SYMBOL voltage -368 -304 R0
WINDOW 123 0 0 Left 0
WINDOW 39 0 0 Left 0
SYMATTR InstName V2
SYMATTR Value PULSE(0 5 0 1n 1n 1u 2u 8)
SYMBOL basic\ gates\\and_gate 448 64 R0
SYMATTR InstName X0
TEXT -528 200 Left 2 !.tran 1m
