Version 4.1
SHEET 1 1140 680
WIRE 16 96 16 -64
WIRE 48 96 48 -32
WIRE 64 96 48 96
WIRE 240 96 240 -64
WIRE 272 96 272 -32
WIRE 288 96 272 96
WIRE 464 96 464 -64
WIRE 496 96 496 -32
WIRE 512 96 496 96
WIRE 688 96 688 -64
WIRE 720 96 720 -32
WIRE 736 96 720 96
WIRE 64 128 16 96
WIRE 240 128 208 128
WIRE 288 128 240 96
WIRE 464 128 432 128
WIRE 512 128 464 96
WIRE 688 128 656 128
WIRE 736 128 688 96
WIRE 1056 128 880 128
WIRE 224 160 208 160
WIRE 240 160 240 128
WIRE 288 160 240 160
WIRE 448 160 432 160
WIRE 464 160 464 128
WIRE 512 160 464 160
WIRE 672 160 656 160
WIRE 688 160 688 128
WIRE 736 160 688 160
WIRE 896 160 880 160
WIRE 224 336 224 160
WIRE 448 336 448 160
WIRE 672 336 672 160
WIRE 896 336 896 160
WIRE 1056 336 1056 128
FLAG -304 128 0
FLAG -304 48 Vdd
IOPIN -304 48 In
FLAG 224 336 S0
IOPIN 224 336 Out
FLAG 448 336 S1
IOPIN 448 336 Out
FLAG 672 336 S2
IOPIN 672 336 Out
FLAG 896 336 S3
IOPIN 896 336 Out
FLAG 1056 336 Cout
IOPIN 1056 336 Out
FLAG 48 -32 A0
IOPIN 48 -32 In
FLAG 272 -32 A1
IOPIN 272 -32 In
FLAG 496 -32 A2
IOPIN 496 -32 In
FLAG 720 -32 A3
IOPIN 720 -32 In
FLAG 16 -64 B0
IOPIN 16 -64 In
FLAG 240 -64 B1
IOPIN 240 -64 In
FLAG 464 -64 B2
IOPIN 464 -64 In
FLAG 688 -64 B3
IOPIN 688 -64 In
SYMBOL Symbols\\full_adder 128 144 R0
SYMATTR InstName X1
SYMBOL Symbols\\full_adder 352 144 R0
SYMATTR InstName X2
SYMBOL Symbols\\full_adder 576 144 R0
SYMATTR InstName X3
SYMBOL Symbols\\full_adder 800 144 R0
SYMATTR InstName X4
SYMBOL voltage -304 32 R0
WINDOW 123 0 0 Left 0
WINDOW 39 0 0 Left 0
SYMATTR InstName V1
SYMATTR Value 5
