Version 4.1
SHEET 1 880 680
WIRE 208 -64 208 -96
WIRE 208 -64 128 -64
WIRE 288 -64 208 -64
WIRE -368 16 -448 16
WIRE -288 16 -368 16
WIRE 128 16 128 -16
WIRE 288 16 288 -16
WIRE 352 16 336 16
WIRE 208 32 128 32
WIRE 288 32 208 32
WIRE 208 64 208 32
WIRE 416 64 208 64
WIRE 80 80 80 16
WIRE 80 80 16 80
WIRE 80 144 80 80
WIRE 160 144 80 144
WIRE 208 144 208 112
WIRE 160 240 80 240
WIRE 208 240 208 208
WIRE 80 272 80 240
WIRE 80 272 16 272
WIRE 80 304 80 272
WIRE 352 304 352 16
WIRE 352 304 80 304
FLAG 208 256 0
FLAG 208 -96 Vdd
IOPIN 208 -96 In
FLAG 16 80 A
IOPIN 16 80 In
FLAG 16 272 B
IOPIN 16 272 In
FLAG 416 64 X
IOPIN 416 64 Out
FLAG -368 16 0
FLAG -448 -64 A
IOPIN -448 -64 In
FLAG -368 -64 B
IOPIN -368 -64 In
FLAG -288 -64 Vdd
IOPIN -288 -64 In
SYMBOL nmos4 160 64 R0
SYMATTR InstName M1
SYMBOL nmos4 160 160 R0
SYMATTR InstName M2
SYMBOL pmos4 80 -64 R0
SYMATTR InstName M3
SYMBOL pmos4 336 -64 M0
SYMATTR InstName M4
SYMBOL voltage -448 -80 R0
WINDOW 123 0 0 Left 0
WINDOW 39 0 0 Left 0
SYMATTR InstName V1
SYMATTR Value 5
SYMBOL voltage -368 -80 R0
WINDOW 123 0 0 Left 0
WINDOW 39 0 0 Left 0
SYMATTR InstName V2
SYMATTR Value 5
SYMBOL voltage -288 -80 R0
WINDOW 123 0 0 Left 0
WINDOW 39 0 0 Left 0
SYMATTR InstName V3
SYMATTR Value 5
TEXT -512 352 Left 2 !.op
