Version 4.1
SHEET 1 1176 680
WIRE 16 96 16 -64
WIRE 48 96 48 -32
WIRE 64 96 48 96
WIRE 256 96 256 -64
WIRE 288 96 288 -32
WIRE 304 96 288 96
WIRE 496 96 496 -64
WIRE 528 96 528 -32
WIRE 544 96 528 96
WIRE 736 96 736 -64
WIRE 768 96 768 -32
WIRE 784 96 768 96
WIRE 64 128 16 96
WIRE 256 128 208 128
WIRE 304 128 256 96
WIRE 496 128 448 128
WIRE 544 128 496 96
WIRE 736 128 688 128
WIRE 784 128 736 96
WIRE 1104 128 928 128
WIRE 224 160 208 160
WIRE 256 160 256 128
WIRE 304 160 256 160
WIRE 464 160 448 160
WIRE 496 160 496 128
WIRE 544 160 496 160
WIRE 704 160 688 160
WIRE 736 160 736 128
WIRE 784 160 736 160
WIRE 944 160 928 160
WIRE 224 336 224 160
WIRE 464 336 464 160
WIRE 704 336 704 160
WIRE 944 336 944 160
WIRE 1104 336 1104 128
FLAG -304 128 0
FLAG -304 48 Vdd
IOPIN -304 48 In
FLAG 224 336 S0
IOPIN 224 336 Out
FLAG 464 336 S1
IOPIN 464 336 Out
FLAG 704 336 S2
IOPIN 704 336 Out
FLAG 944 336 S3
IOPIN 944 336 Out
FLAG 1104 336 Cout
IOPIN 1104 336 Out
FLAG 48 -32 A0
IOPIN 48 -32 In
FLAG 288 -32 A1
IOPIN 288 -32 In
FLAG 528 -32 A2
IOPIN 528 -32 In
FLAG 768 -32 A3
IOPIN 768 -32 In
FLAG 16 -64 B0
IOPIN 16 -64 In
FLAG 256 -64 B1
IOPIN 256 -64 In
FLAG 496 -64 B2
IOPIN 496 -64 In
FLAG 736 -64 B3
IOPIN 736 -64 In
FLAG 64 192 Vdd
IOPIN 64 192 In
FLAG 304 192 Vdd
IOPIN 304 192 In
FLAG 544 192 Vdd
IOPIN 544 192 In
FLAG 784 192 Vdd
IOPIN 784 192 In
SYMBOL voltage -304 32 R0
WINDOW 123 0 0 Left 0
WINDOW 39 0 0 Left 0
SYMATTR InstName V1
SYMATTR Value 5
SYMBOL CMOS-Logic-Gates\\adders\\full_adder 128 144 R0
SYMATTR InstName X1
SYMBOL CMOS-Logic-Gates\\adders\\full_adder 368 144 R0
SYMATTR InstName X2
SYMBOL CMOS-Logic-Gates\\adders\\full_adder 608 144 R0
SYMATTR InstName X3
SYMBOL CMOS-Logic-Gates\\adders\\full_adder 848 144 R0
SYMATTR InstName X4
